
Circuit: *

Doing analysis at TEMP = 27.000000 and TNOM = 27.000000


No. of Data Rows : 1
********************************************
Operating point
********************************************
op_TAB
@c[i] = 0.000000e+00
@gb[i] = -2.91567e-04
@r1[i] = 2.780494e-04
@r2[i] = 2.915672e-04
@r3[i] = -1.35178e-05
@r4[i] = -1.22689e-03
@r5[i] = -2.91567e-04
@r6[i] = 9.488377e-04
@r7[i] = 9.488377e-04
v(1) = 5.243596e+00
v(2) = 4.952739e+00
v(3) = 4.367468e+00
v(4) = -1.96340e+00
v(5) = 4.994112e+00
v(6) = 5.904536e+00
v(7) = -1.96340e+00
v(8) = -2.92677e+00
hd#branch = -9.48838e-04
vf#branch = 9.488377e-04
vs#branch = -2.78049e-04
op_END
ngspice-31 done
