
Circuit: *-------------------------------------------------------

Doing analysis at TEMP = 27.000000 and TNOM = 27.000000


No. of Data Rows : 1
********************************************
Transient analysis
********************************************
Doing analysis at TEMP = 27.000000 and TNOM = 27.000000


Initial Transient Solution
--------------------------

Node                                   Voltage
----                                   -------
1                                            0
2                                 -5.62634e-13
3                                 -1.69478e-12
5                                 -4.82603e-13
6                                       8.8313
4                                  1.89732e-13
7                                  1.89732e-13
8                                  2.82826e-13
hd#branch                           0.00282826
vf#branch                         -9.16903e-17
vs#branch                         -5.37859e-16


No. of Data Rows : 20008

The file "trans.ps" may be printed on a postscript printer.
trans_FIG
ngspice-31 done
