
Circuit: *values:  95787

Doing analysis at TEMP = 27.000000 and TNOM = 27.000000


No. of Data Rows : 1
********************************************
Operating point
********************************************
opeq_TAB
@gb[i] = 6.332294e-18
@r1[i] = -6.04059e-18
@r2[i] = -6.33229e-18
@r3[i] = 2.917029e-19
@r4[i] = -1.32956e-18
@r5[i] = -2.72282e-03
@r6[i] = 8.673617e-19
@r7[i] = 1.320008e-20
v(1) = 0.000000e+00
v(2) = 6.218372e-15
v(3) = 1.897135e-14
v(4) = -1.76289e-15
v(5) = 5.329071e-15
v(6) = 8.573530e+00
v(7) = -1.76289e-15
v(8) = -1.77636e-15
hd#branch = 2.722815e-03
vf#branch = 8.673617e-19
vs#branch = 6.040591e-18
vx#branch = -2.72282e-03
v(6)-v(8) = 8.573530e+00
(v(6)-v(8))/vx#branch = -3.14877e+03
opeq_END
ngspice-31 done
