
Circuit: *values:  95815 

Doing analysis at TEMP = 27.000000 and TNOM = 27.000000


No. of Data Rows : 1
********************************************
Operating point
********************************************
op_TAB
@c[i] = 0.000000e+00
@gb[i] = -2.65897e-04
@r1[i] = 2.536486e-04
@r2[i] = 2.658975e-04
@r3[i] = -1.22488e-05
@r4[i] = -1.20531e-03
@r5[i] = -2.65897e-04
@r6[i] = 9.516617e-04
@r7[i] = 9.516617e-04
v(1) = 5.054819e+00
v(2) = 4.793705e+00
v(3) = 4.258199e+00
v(4) = -1.93423e+00
v(5) = 4.831048e+00
v(6) = 5.668299e+00
v(7) = -1.93423e+00
v(8) = -2.90523e+00
hd#branch = -9.51662e-04
vf#branch = 9.516617e-04
vs#branch = -2.53649e-04
op_END
ngspice-31 done
