
Circuit: *-------------------------------------------------------

Doing analysis at TEMP = 27.000000 and TNOM = 27.000000


No. of Data Rows : 1
********************************************
Operating point
********************************************
opeq_TAB
@gb[i] = 4.151983e-18
@r1[i] = -3.95949e-18
@r2[i] = -4.15198e-18
@r3[i] = 1.924970e-19
@r4[i] = -8.72784e-19
@r5[i] = -2.82826e-03
@r6[i] = 4.336809e-19
@r7[i] = -8.83871e-19
v(1) = 0.000000e+00
v(2) = 4.141871e-15
v(3) = 1.247625e-14
v(4) = -8.97403e-16
v(5) = 3.552714e-15
v(6) = 8.831302e+00
v(7) = -8.97403e-16
v(8) = 0.000000e+00
hd#branch = 2.828260e-03
vf#branch = 4.336809e-19
vs#branch = 3.959486e-18
vx#branch = -2.82826e-03
v(6)-v(8) = 8.831302e+00
(v(6)-v(8))/vx#branch = -3.12252e+03
opeq_END
ngspice-31 done
