
Circuit: *values:  95815 

Doing analysis at TEMP = 27.000000 and TNOM = 27.000000


No. of Data Rows : 1
********************************************
Operating point
********************************************
op_TAB
@gb[i] = -2.91567e-01
@id[current] = 1.018915e+00
@r1[i] = -2.78049e-01
@r2[i] = -2.91567e-01
@r3[i] = -1.35178e-02
@r4[i] = 1.226887e+00
@r5[i] = 1.310482e+00
@r6[i] = -9.48838e-01
@r7[i] = -9.48838e-01
v(1) = 5.243596e+00
v(2) = 4.952740e+00
v(3) = 4.367469e+00
v(4) = 4.994112e+00
v(5) = 9.086122e+00
v(6) = -2.92677e+00
v(7) = -1.96340e+00
v(8) = -1.96340e+00
hc#branch = 7.007741e-02
va#branch = -2.78049e-01
vf#branch = 9.488380e-01
op_END
ngspice-31 done
