
Circuit: *values

********************************************
Transient analysis
********************************************
Doing analysis at TEMP = 27.000000 and TNOM = 27.000000


Initial Transient Solution
--------------------------

Node                                   Voltage
----                                   -------
1                                       41.327
3                                     -0.64381
2                                      40.6832
5                                      12.0034
vs#branch                          -0.00064583


No. of Data Rows : 20001
yavg                =  1.200005e+01 from=  1.500000e-01 to=  3.500000e-01
ymax                =  1.200058e+01 at=  1.502728e-01
ymin                =  1.199951e+01 at=  3.096728e-01
ERROR: (internal)  This operation is not defined for display type printf.
Can't open viewport for graphics.

The file "vrect.ps" may be printed on a postscript printer.
vrect_FIG
ERROR: (internal)  This operation is not defined for display type printf.
Can't open viewport for graphics.

The file "vout.ps" may be printed on a postscript printer.
vout_FIG
ERROR: (internal)  This operation is not defined for display type printf.
Can't open viewport for graphics.

The file "vo_menos_12.ps" may be printed on a postscript printer.
vo_menos_12_FIG
ERROR: (internal)  This operation is not defined for display type printf.
Can't open viewport for graphics.

The file "vs_vout_venv.ps" may be printed on a postscript printer.
vs_vout_venv_FIG
ngspice-31 done
