
Circuit: *-----------------------------------------------------------------------------

false = 0.000000e+00
true = 1.000000e+00
boltz = 1.380649e-23
c = 2.997925e+08
e = 2.718282e+00
echarge = 1.602177e-19
i = 0.000000e+00,1.000000e+00
kelvin = -2.73150e+02
no = 0.000000e+00
pi = 3.141593e+00
planck = 6.626070e-34
yes = 1.000000e+00
Reducing trtol to 1 for xspice 'A' devices
Doing analysis at TEMP = 27.000000 and TNOM = 27.000000


Initial Transient Solution
--------------------------

Node                                   Voltage
----                                   -------
vcc                                          5
vee                                         -5
in                                           0
n_inv                             -7.97332e-05
amp                                 0.00186762
inv_in                            -6.04907e-05
x1.11                                  4.96032
x1.12                                  4.96034
x1.6                              -2.29623e-07
x1.7                                 0.0020524
x1.53                                        4
x1.54                                       -4
x1.90                                0.0036957
x1.91                                       40
x1.92                                      -40
x1.99                                        0
x1.10                                -0.607758
x1.13                                 -0.59388
x1.14                                -0.593887
x1.9                                         0
x1.8                                 0.0020524
out                                2.94113e-05
h.x1.hlim#branch                  -7.39166e-15
v.x1.vlim#branch                    3.6957e-06
v.x1.vln#branch                   -4.00073e-11
v.x1.vlp#branch                   -3.99971e-11
v.x1.ve#branch                     4.00311e-12
v.x1.vc#branch                     3.99893e-12
v.x1.vb#branch                    -2.29623e-12
vin#branch                                   0
vee#branch                         0.000565821
vcc#branch                        -0.000565615
a$poly$e.x1.egnd#branch_1_0       -3.74178e-06


No. of Data Rows : 1011
vout_FIG
Error: argument out of range for db
com_hardcopy: graph not defined
ERROR: (internal)  tried to destroy non-existent graph
Reducing trtol to 1 for xspice 'A' devices
Doing analysis at TEMP = 27.000000 and TNOM = 27.000000


No. of Data Rows : 71

The file "vdbout.ps" may be printed on a postscript printer.
vdbout_FIG
Reducing trtol to 1 for xspice 'A' devices
Doing analysis at TEMP = 27.000000 and TNOM = 27.000000


No. of Data Rows : 1
	Node                                  Voltage
	----                                  -------
	----	-------
	out                              2.941133e-05
	x1.8                             2.052405e-03
	x1.9                             0.000000e+00
	x1.14                            -5.93887e-01
	x1.13                            -5.93880e-01
	x1.10                            -6.07758e-01
	x1.99                            0.000000e+00
	x1.92                            -4.00000e+01
	x1.91                            4.000000e+01
	x1.90                            3.695698e-03
	x1.54                            -4.00000e+00
	x1.53                            4.000000e+00
	x1.7                             2.052405e-03
	x1.6                             -2.29623e-07
	x1.12                            4.960343e+00
	x1.11                            4.960324e+00
	inv_in                           -6.04907e-05
	amp                              1.867620e-03
	n_inv                            -7.97332e-05
	in                               0.000000e+00
	vee                              -5.00000e+00
	vcc                              5.000000e+00

	Source	Current
	------	-------

	@rl[i]                           3.676417e-06
	@c2[i]                           0.000000e+00
	@r2[i]                           3.676417e-06
	@r.x1.rp[i]                      5.506608e-04
	@r.x1.ro2[i]                     2.052405e-05
	@r.x1.ro1[i]                     3.695698e-06
	@r.x1.ree[i]                     -4.60772e-08
	@r.x1.re2[i]                     7.555132e-06
	@r.x1.re1[i]                     7.558791e-06
	@r.x1.rc2[i]                     7.475404e-06
	@r.x1.rc1[i]                     7.479024e-06
	@r.x1.r2[i]                      -2.29623e-12
	@q.x1.q2[is]                     4.960343e-12
	@q.x1.q2[ib]                     7.973317e-08
	@q.x1.q2[ie]                     -7.55514e-06
	@q.x1.q2[ic]                     7.475399e-06
	@q.x1.q1[is]                     4.960324e-12
	@q.x1.q1[ib]                     7.977178e-08
	@q.x1.q1[ie]                     -7.55880e-06
	@q.x1.q1[ic]                     7.479019e-06
	@g.x1.gcm[i]                     -3.62285e-09
	@g.x1.ga[i]                      -3.62055e-09
	@d.x1.dp[id]                     -1.00008e-11
	@d.x1.dln[id]                    -4.00045e-11
	@d.x1.dlp[id]                    -3.99971e-11
	@d.x1.de[id]                     -4.00267e-12
	@d.x1.dc[id]                     -3.99893e-12
	@c.x1.c2[i]                      0.000000e+00
	@c.x1.c1[i]                      0.000000e+00
	@r4[i]                           -6.04907e-08
	@r3[i]                           1.928110e-08
	@r1[i]                           -7.97332e-08
	@c1[i]                           0.000000e+00
	a$poly$e.x1.egnd#branch_1_0      -3.74178e-06
	vcc#branch                       -5.65615e-04
	vee#branch                       5.658208e-04
	vin#branch                       0.000000e+00
	v.x1.vb#branch                   -2.29623e-12
	v.x1.vc#branch                   3.998932e-12
	v.x1.ve#branch                   4.003111e-12
	v.x1.vlp#branch                  -3.99971e-11
	v.x1.vln#branch                  -4.00073e-11
	v.x1.vlim#branch                 3.695698e-06
	h.x1.hlim#branch                 -7.39166e-15

 BJT models (Bipolar Junction Transistor)
      model                 x1:qx

       type                   npn
       tnom                    27
         is                 8e-16
         bf                 93.75
         nf                     1
        vaf                     0
        ikf                     0
        ise                     0
         ne                   1.5
         br                     1
         nr                     1
        var                     0
        ikr                     0
        isc                     0
         nc                     2
         rb                     0
        irb                     0
        rbm                     0
         re                     0
         rc                     0
        cje                     0
        vje                  0.75
        mje                  0.33
         tf                     0
        xtf                     0
        vtf                     0
        itf                     0
        ptf                     0
        cjc                     0
        vjc                  0.75
        mjc                  0.33
       xcjc                     1
         tr                     0
        cjs                     0
        vjs                  0.75
        mjs                     0
        xtb                     0
         eg                  1.11
        xti                     3
         fc                   0.5
         kf                     0
         af                     0
        iss                     0
         ns                     1
       tlev                     0
      tlevc                     0
       tbf1                     0
       tbf2                     0
       tbr1                     0
       tbr2                     0
      tikf1                     0
      tikf2                     0
      tikr1                     0
      tikr2                     0
      tirb1                     0
      tirb2                     0
       tnc1                     0
       tnc2                     0
       tne1                     0
       tne2                     0
       tnf1                     0
       tnf2                     0
       tnr1                     0
       tnr2                     0
       trb1                     0
       trb2                     0
       trc1                     0
       trc2                     0
       tre1                     0
       tre2                     0
       trm1                     0
       trm2                     0
      tvaf1                     0
      tvaf2                     0
      tvar1                     0
      tvar2                     0
        ctc                     0
        cte                     0
        cts                     0
       tvjc                     0
       tvje                     0
       tvjs                     0
      titf1                     0
      titf2                     0
       ttf1                     0
       ttf2                     0
       ttr1                     0
       ttr2                     0
      tmje1                     0
      tmje2                     0
      tmjc1                     0
      tmjc2                     0
      tmjs1                     0
      tmjs2                     0
       tns1                     0
       tns2                     0
        nkf                   0.5
       tis1                     0
       tis2                     0
      tise1                     0
      tise2                     0
      tisc1                     0
      tisc2                     0
    vbe_max                 1e+99
    vbc_max                 1e+99
    vce_max                 1e+99

 Capacitor models (Fixed capacitor)
      model                     C

        cap                     0
         cj                     0
       cjsw                     0
       defw                 1e-05
       defl                     0
     narrow                     0
      short                     0
        del                     0
        tc1                     0
        tc2                     0
         di                     0
      thick                     0
     bv_max                 1e+99

 Diode models (Junction Diode model)
      model                 x1:dx

      level                     1
         is                 8e-16
        jsw                     0
         rs                     1
        trs                     0
       trs2                     0
          n                     1
         ns                     1
         tt                     0
       ttt1                     0
       ttt2                     0
        cjo                     0
         vj                     1
          m                   0.5
        tm1                     0
        tm2                     0
        cjp                     0
        php                     1
       mjsw                  0.33
        ikf                     0
        ikr                     0
        nbv                     1
       area                     1
         pj                     0
       tlev                     0
      tlevc                     0
         eg                  1.11
        xti                     3
        cta                     0
        ctp                     0
        tpb                     0
       tphp                     0
       jtun                     0
     jtunsw                     0
       ntun                    30
     xtitun                     3
        keg                     1
         kf                     0
         af                     1
         fc                   0.5
        fcs                   0.5
         bv                     0
        ibv                 0.001
        tcv                     0
     fv_max                 1e+99
     bv_max                 1e+99
        isr                 1e-14
         nr                     1

 Resistor models (Simple linear resistor)
      model                     R

        rsh                     0
     narrow                     0
      short                     0
        tc1                     0
        tc2                     0
        tce                     0
       defw                 1e-05
          l                 1e-05
         kf                     0
         af                     0
          r                     0
     bv_max                 1e+99
         lf                     1
         wf                     1
         ef                     1

 spice2poly models (2G6 compatible polynomial controlled source)
      model        a$poly$f.x1.fb      a$poly$e.x1.egnd

       coef                     0                     0
                        1.061e+07                   0.5
                           -1e+07                   0.5
                            1e+07          
                            1e+07          
                           -1e+07          

 BJT: Bipolar Junction Transistor
     device               q.x1.q2               q.x1.q1
      model                 x1:qx                 x1:qx
         ic            7.4754e-06           7.47902e-06
         ib           7.97332e-08           7.97718e-08
         ie          -7.55514e-06           -7.5588e-06
        vbe              0.593807               0.59382
        vbc              -4.96042              -4.96038
         gm           0.000289017           0.000289157
        gpi           3.08285e-06           3.08434e-06
        gmu                 1e-12                 1e-12
         gx                     0                     0
         go           9.22041e-23           9.22069e-23
        cpi                     0                     0
        cmu                     0                     0
        cbx                     0                     0
       csub                     0                     0

 Capacitor: Fixed capacitor
     device                    c2               c.x1.c2               c.x1.c1
      model                     C                     C                     C
capacitance               1.1e-07                 3e-11             8.661e-12
      dtemp                     0                     0                     0
     bv_max                 1e+99                 1e+99                 1e+99
          i                     0                     0                     0
          p                     0                    -0                    -0

 Capacitor: Fixed capacitor
     device                    c1
      model                     C
capacitance               2.2e-07
      dtemp                     0
     bv_max                 1e+99
          i                     0
          p                     0

 CCVS: Linear current controlled current source
     device             h.x1.hlim
          i          -7.39166e-15
          v             0.0036957
          p          -2.73173e-17

 Diode: Junction Diode model
     device               d.x1.dp              d.x1.dln              d.x1.dlp
      model                 x1:dx                 x1:dx                 x1:dx
         vd                   -10              -40.0037              -39.9963
         id          -1.00008e-11          -4.00045e-11          -3.99971e-11
         gd                 1e-12                 1e-12                 1e-12
         cd                     0                     0                     0

 Diode: Junction Diode model
     device               d.x1.de               d.x1.dc
      model                 x1:dx                 x1:dx
         vd              -4.00187              -3.99813
         id          -4.00267e-12          -3.99893e-12
         gd                 1e-12                 1e-12
         cd                     0                     0

 Isource: Independent current source
     device              i.x1.iee
         dc             1.516e-05
          m                     1
      acmag                     0
      pulse         -
        sin         -
        exp         -
        pwl         -
       sffm         -
         am         -
    trnoise         -
   trrandom         -
          v              -4.39224
          p           6.65864e-05
    current             1.516e-05

 Resistor: Simple linear resistor
     device                    rl                    r2               r.x1.rp
      model                     R                     R                     R
 resistance                     8                   500                 18160
         ac                     8                   500                 18160
      dtemp                     0                     0                     0
     bv_max                 1e+99                 1e+99                 1e+99
      noisy                     1                     1                     1
          i           3.67642e-06           3.67642e-06           0.000550661
          p           1.08128e-10           6.75802e-09            0.00550661

 Resistor: Simple linear resistor
     device              r.x1.ro2              r.x1.ro1              r.x1.ree
      model                     R                     R                     R
 resistance                   100                    50             1.319e+07
         ac                   100                    50             1.319e+07
      dtemp                     0                     0                     0
     bv_max                 1e+99                 1e+99                 1e+99
      noisy                     1                     1                     1
          i            2.0524e-05            3.6957e-06          -4.60772e-08
          p           4.21236e-08           6.82909e-10           2.80038e-08

 Resistor: Simple linear resistor
     device              r.x1.re2              r.x1.re1              r.x1.rc2
      model                     R                     R                     R
 resistance                  1836                  1836                  5305
         ac                  1836                  1836                  5305
      dtemp                     0                     0                     0
     bv_max                 1e+99                 1e+99                 1e+99
      noisy                     1                     1                     1
          i           7.55513e-06           7.55879e-06            7.4754e-06
          p           1.04799e-07             1.049e-07           2.96452e-07

 Resistor: Simple linear resistor
     device              r.x1.rc1               r.x1.r2                    r4
      model                     R                     R                     R
 resistance                  5305                100000                  1000
         ac                  5305                100000                  1000
      dtemp                     0                     0                     0
     bv_max                 1e+99                 1e+99                 1e+99
      noisy                     1                     1                     1
          i           7.47902e-06          -2.29623e-12          -6.04907e-08
          p           2.96739e-07           5.27268e-19           3.65912e-12

 Resistor: Simple linear resistor
     device                    r3                    r1
      model                     R                     R
 resistance                100000                  1000
         ac                100000                  1000
      dtemp                     0                     0
     bv_max                 1e+99                 1e+99
      noisy                     1                     1
          i           1.92811e-08          -7.97332e-08
          p           3.71761e-11           6.35738e-12

 VCCS: Voltage controlled current source
     device              g.x1.gcm               g.x1.ga
          m                     0                     0
          i          -3.62285e-09          -3.62055e-09
          v           2.29623e-07          -2.29623e-07
          p          -8.31889e-16           8.31362e-16

 Vsource: Independent voltage source
     device              v.x1.vln              v.x1.vlp             v.x1.vlim
         dc                    40                    40                     0
      acmag                     0                     0                     0
      pulse         -         -         -
        sin         -         -         -
        exp         -         -         -
        pwl         -         -         -
       sffm         -         -         -
         am         -         -         -
    trnoise         -         -         -
   trrandom         -         -         -
          i          -4.00073e-11          -3.99971e-11            3.6957e-06
          p           1.60029e-09           1.59988e-09                    -0

 Vsource: Independent voltage source
     device               v.x1.ve               v.x1.vc               v.x1.vb
         dc                     1                     1                     0
      acmag                     0                     0                     0
      pulse         -         -         -
        sin         -         -         -
        exp         -         -         -
        pwl         -         -         -
       sffm         -         -         -
         am         -         -         -
    trnoise         -         -         -
   trrandom         -         -         -
          i           4.00311e-12           3.99893e-12          -2.29623e-12
          p          -4.00311e-12          -3.99893e-12                     0

 Vsource: Independent voltage source
     device                   vin                   vee                   vcc
         dc                     0                    -5                     5
      acmag                     1                     0                     0
      pulse                     0         -         -
                             0.01                    
                             1000                    
        sin                     0         -         -
                             0.01                    
                             1000                    
        exp                     0         -         -
                             0.01                    
                             1000                    
        pwl                     0         -         -
                             0.01                    
                             1000                    
       sffm                     0         -         -
                             0.01                    
                             1000                    
         am                     0         -         -
                             0.01                    
                             1000                    
    trnoise                     0         -         -
                             0.01                    
                             1000                    
   trrandom                     0         -         -
                             0.01                    
                             1000                    
          i                     0           0.000565821          -0.000565615
          p                    -0             0.0028291            0.00282808

 spice2poly: 2G6 compatible polynomial controlled source
     device        a$poly$f.x1.fb      a$poly$e.x1.egnd
      model        a$poly$f.x1.fb      a$poly$e.x1.egnd
    acgains             1.061e+07                   0.5
                           -1e+07                   0.5
                            1e+07          
                            1e+07          
                           -1e+07          


Total analysis time (seconds) = 0.017

Total elapsed time (seconds) = 0.025 

Total DRAM available = 3906.922 MB.
DRAM currently available = 1664.102 MB.
Total ngspice program size =   23.719 MB.
Resident set size =   11.719 MB.
Shared ngspice pages =    8.023 MB.
Text (code) pages =    5.070 MB.
Stack = 0 bytes.
Library pages =    3.977 MB.

